{\rtf1\ansi\ansicpg1252\cocoartf2822
\cocoatextscaling0\cocoaplatform0{\fonttbl\f0\fnil\fcharset0 Menlo-Regular;}
{\colortbl;\red255\green255\blue255;\red0\green0\blue0;}
{\*\expandedcolortbl;;\cssrgb\c0\c0\c0\cname textColor;}
\margl1440\margr1440\vieww11520\viewh8400\viewkind0
\pard\tx2400\tx4800\tx7200\tx9600\tx12000\tx14400\tx14400\tx14400\partightenfactor0

\f0\fs24 \cf2 LTspice 17.2.4 for MacOS\
Circuit: * /Users/marcotamburini/Desktop/WPT/WPT-LTspice/Voltage Doubler.asc\
Start Time: Sun May 31 15:06:55 2026\
solver = Normal\
Maximum thread count: 8\
\
\
\
CompressWinPoints = 1024\
.OP point found by inspection.\
.step p_dbm=-20\
\
\
\
.step p_dbm=-19\
\
\
\
.step p_dbm=-18\
\
\
\
.step p_dbm=-17\
\
\
\
.step p_dbm=-16\
\
\
\
.step p_dbm=-15\
\
\
\
.step p_dbm=-14\
\
\
\
.step p_dbm=-13\
\
\
\
.step p_dbm=-12\
\
\
\
.step p_dbm=-11\
\
\
\
.step p_dbm=-10\
\
\
\
.step p_dbm=-9\
\
\
\
.step p_dbm=-8\
\
\
\
.step p_dbm=-7\
\
\
\
.step p_dbm=-6\
\
\
\
.step p_dbm=-5\
\
\
\
.step p_dbm=-4\
\
\
\
.step p_dbm=-3\
\
\
\
.step p_dbm=-2\
\
\
\
.step p_dbm=-1\
\
\
\
.step p_dbm=0\
\
\
\
.step p_dbm=1\
\
\
\
.step p_dbm=2\
\
\
\
.step p_dbm=3\
\
\
\
.step p_dbm=4\
\
\
\
.step p_dbm=5\
\
\
\
.step p_dbm=6\
\
\
\
.step p_dbm=7\
\
\
\
.step p_dbm=8\
\
\
\
.step p_dbm=9\
\
\
\
.step p_dbm=10\
\
\
\
.step p_dbm=11\
\
\
\
.step p_dbm=12\
\
\
\
.step p_dbm=13\
\
\
\
.step p_dbm=14\
\
\
\
.step p_dbm=15\
\
\
\
.step p_dbm=16\
\
\
\
.step p_dbm=17\
\
\
\
.step p_dbm=18\
\
\
\
.step p_dbm=19\
tnom = 27\
temp = 27\
method = modified trap\
.step p_dbm=20\
\
\
Measurement: vdc\
  step	AVG(v(dc_out))	FROM	TO\
     1	-1.56728e-05	8e-07	1e-06\
     2	-1.62563e-05	8e-07	1e-06\
     3	-1.12914e-05	8e-07	1e-06\
     4	-2.72074e-06	8e-07	1e-06\
     5	2.14595e-05	8e-07	1e-06\
     6	5.74609e-05	8e-07	1e-06\
     7	0.000130213	8e-07	1e-06\
     8	0.000312184	8e-07	1e-06\
     9	0.00056944	8e-07	1e-06\
    10	0.00106073	8e-07	1e-06\
    11	0.00210655	8e-07	1e-06\
    12	0.00426393	8e-07	1e-06\
    13	0.00851878	8e-07	1e-06\
    14	0.0164815	8e-07	1e-06\
    15	0.0295555	8e-07	1e-06\
    16	0.0476927	8e-07	1e-06\
    17	0.0709089	8e-07	1e-06\
    18	0.0986862	8e-07	1e-06\
    19	0.131267	8e-07	1e-06\
    20	0.168414	8e-07	1e-06\
    21	0.21084	8e-07	1e-06\
    22	0.258233	8e-07	1e-06\
    23	0.312423	8e-07	1e-06\
    24	0.374709	8e-07	1e-06\
    25	0.444134	8e-07	1e-06\
    26	0.522806	8e-07	1e-06\
    27	0.61212	8e-07	1e-06\
    28	0.71373	8e-07	1e-06\
    29	0.827808	8e-07	1e-06\
    30	0.958504	8e-07	1e-06\
    31	1.10627	8e-07	1e-06\
    32	1.27455	8e-07	1e-06\
    33	1.46589	8e-07	1e-06\
    34	1.6835	8e-07	1e-06\
    35	1.93059	8e-07	1e-06\
    36	2.20978	8e-07	1e-06\
    37	2.52913	8e-07	1e-06\
    38	2.89152	8e-07	1e-06\
    39	3.30037	8e-07	1e-06\
    40	3.76145	8e-07	1e-06\
    41	4.28692	8e-07	1e-06\
\
Total elapsed time: 25.421 seconds.\
\
}